Code/Joint Simulation/case_T/PSSE23/savnw_tuned_th.raw
@!IC, SBASE,REV,XFRRAT,NXFRAT,BASFRQ
0,   100.00, 34,     0,     1, 60.00     / PSS(R)E-34.3    TUE, AUG 03 2021  14:22
PSS(R)E PROGRAM APPLICATION GUIDE EXAMPLE
BASE CASE INCLUDING SEQUENCE DATA
GENERAL, THRSHZ=0.0001, PQBRAK=0.7, BLOWUP=5.0
GAUSS, ITMX=100, ACCP=1.6, ACCQ=1.6, ACCM=1.0, TOL=0.0001
NEWTON, ITMXN=20, ACCN=1.0, TOLN=0.1, VCTOLQ=0.1, VCTOLV=0.00001, DVLIM=0.99, NDVFCT=0.99
ADJUST, ADJTHR=0.005, ACCTAP=1.0, TAPLIM=0.05, SWVBND=100.0, MXTPSS=99, MXSWIM=10
TYSL, ITMXTY=20, ACCTY=1.0, TOLTY=0.00001
SOLVER, FDNS, ACTAPS=0, AREAIN=0, PHSHFT=0, DCTAPS=1, SWSHNT=1, FLATST=2, VARLIM=99, NONDIV=0
RATING, 1, "RATE1 ", "RATING SET 1                    "
RATING, 2, "RATE2 ", "RATING SET 2                    "
RATING, 3, "RATE3 ", "RATING SET 3                    "
RATING, 4, "RATE4 ", "RATING SET 4                    "
RATING, 5, "RATE5 ", "RATING SET 5                    "
RATING, 6, "RATE6 ", "RATING SET 6                    "
RATING, 7, "RATE7 ", "RATING SET 7                    "
RATING, 8, "RATE8 ", "RATING SET 8                    "
RATING, 9, "RATE9 ", "RATING SET 9                    "
RATING,10, "RATE10", "RATING SET 10                   "
RATING,11, "RATE11", "RATING SET 11                   "
RATING,12, "RATE12", "RATING SET 12                   "
0 / END OF SYSTEM-WIDE DATA, BEGIN BUS DATA
@!   I,'NAME        ', BASKV, IDE,AREA,ZONE,OWNER, VM,        VA,    NVHI,   NVLO,   EVHI,   EVLO
   101,'NUC-A       ',  21.6000,2,   1,  77,  11,1.02000,  11.8979,1.10000,0.90000,1.10000,0.90000
   102,'NUC-B       ',  21.6000,2,   1,  77,  11,1.02000,  11.8979,1.10000,0.90000,1.10000,0.90000
   151,'NUCPANT     ', 500.0000,1,   1,   1,   1,1.03405,   7.8060,1.10000,0.90000,1.10000,0.90000
   152,'MID500      ', 500.0000,1,   1,   1,   1,1.06791,  -0.3852,1.10000,0.90000,1.10000,0.90000
   153,'MID230      ', 230.0000,1,   1,   1,   1,1.04913,  -1.7778,1.10000,0.90000,1.10000,0.90000
   154,'DOWNTN      ', 230.0000,1,   1,   1,   1,1.02157,  -6.0308,1.10000,0.90000,1.10000,0.90000
   201,'HYDRO       ', 500.0000,1,   2,   2,  22,1.08110,   4.3656,1.10000,0.90000,1.10000,0.90000
   202,'EAST500     ', 500.0000,1,   2,   2,   2,1.05708,  -0.4722,1.10000,0.90000,1.10000,0.90000
   203,'EAST230     ', 230.0000,1,   2,   2,   2,1.00653,  -4.0431,1.10000,0.90000,1.10000,0.90000
   204,'SUB500      ', 500.0000,1,   2,   2,   2,1.05339,  -2.1550,1.10000,0.90000,1.10000,0.90000
   205,'SUB230      ', 230.0000,1,   2,   2,   2,1.03005,  -5.5681,1.10000,0.90000,1.10000,0.90000
   206,'URBGEN      ',  18.0000,2,   2,   2,  22,1.03024,  -4.4309,1.10000,0.90000,1.10000,0.90000
   211,'HYDRO_G     ',  20.0000,2,   2,   2,  22,1.06059,   8.7691,1.10000,0.90000,1.10000,0.90000
  3001,'MINE        ', 230.0000,1,   5,   5,  55,1.01324,  -0.7809,1.10000,0.90000,1.10000,0.90000
  3002,'E. MINE     ', 500.0000,1,   5,   5,   5,1.02265,  -1.0005,1.10000,0.90000,1.10000,0.90000
  3003,'S. MINE     ', 230.0000,1,   5,   5,   5,1.01911,  -1.2697,1.10000,0.90000,1.10000,0.90000
  3004,'WEST        ', 500.0000,1,   5,   5,   5,1.05296,  -1.9157,1.10000,0.90000,1.10000,0.90000
  3005,'WEST        ', 230.0000,1,   5,   5,   5,1.03380,  -2.9946,1.10000,0.90000,1.10000,0.90000
  3006,'UPTOWN      ', 230.0000,1,   5,   5,   5,1.04531,  -2.1289,1.10000,0.90000,1.10000,0.90000
  3007,'RURAL       ', 230.0000,1,   5,   5,   5,1.01834,  -5.2111,1.10000,0.90000,1.10000,0.90000
  3008,'CATDOG      ', 230.0000,1,   5,   5,  55,1.02000,  -5.5108,1.10000,0.90000,1.10000,0.90000
  3011,'MINE_G      ',  13.8000,3,   5,   5,  55,1.00000,   0.0000,1.10000,0.90000,1.10000,0.90000
  3018,'CATDOG_G    ',  13.8000,2,   5,   5,  55,1.04796,  -3.0758,1.10000,0.90000,1.10000,0.90000
0 / END OF BUS DATA, BEGIN LOAD DATA
@!   I,'ID',STAT,AREA,ZONE,      PL,        QL,        IP,        IQ,        YP,        YQ, OWNER,SCALE,INTRPT,  DGENP,     DGENQ, DGENF
   153,'1 ',   1,   1,   1,   147.000,    73.500,     0.000,     0.000,     0.000,     0.000,   1,    1,  0,     0.000,     0.000,   0
   154,'1 ',   1,   2,   1,   735.000,   588.000,     0.000,     0.000,     0.000,     0.000,   1,    1,  0,     0.000,     0.000,   0
   203,'1 ',   1,   2,   2,   220.500,   514.500,     0.000,     0.000,     0.000,     0.000,   2,    1,  0,     0.000,     0.000,   0
   205,'1 ',   1,   2,   2,   422.000,   110.250,     0.000,     0.000,     0.000,     0.000,   2,    1,  0,     0.000,     0.000,   0
  3005,'1 ',   1,   5,   5,    33.500,    36.750,     0.000,     0.000,     0.000,     0.000,   5,    1,  0,     0.000,     0.000,   0
  3007,'1 ',   1,   5,   5,   147.000,    55.125,     0.000,     0.000,     0.000,     0.000,   5,    1,  0,     0.000,     0.000,   0
  3008,'1 ',   1,   5,   5,   127.000,    75.000,     0.000,     0.000,     0.000,     0.000,   5,    1,  0,     0.000,     0.000,   0
0 / END OF LOAD DATA, BEGIN FIXED SHUNT DATA
@!   I,'ID',STATUS,  GL,        BL
   151,'1 ',1,     0.000,  -600.000
   154,'1 ',1,     0.000,   300.000
   201,'1 ',1,     0.000,   300.000
   203,'1 ',1,     0.000,    50.000
   205,'1 ',1,     0.000,   300.000
0 / END OF FIXED SHUNT DATA, BEGIN GENERATOR DATA
@!   I,'ID',      PG,        QG,        QT,        QB,     VS,    IREG,     MBASE,     ZR,         ZX,         RT,         XT,     GTAP,STAT, RMPCT,      PT,        PB,    O1,    F1,  O2,    F2,  O3,    F3,  O4,    F4,WMOD,  WPF
   101,'1 ',   551.250,   -97.779,   600.000,  -100.000,1.02000,     0,   900.000, 1.00000E-2, 3.00000E-1, 0.00000E+0, 0.00000E+0,1.00000,1,  100.0,   810.000,     0.000,  11,0.6667,   1,0.3333
   102,'1 ',   551.250,   -97.779,   600.000,  -100.000,1.02000,     0,   900.000, 1.00000E-2, 3.00000E-1, 0.00000E+0, 0.00000E+0,1.00000,1,  100.0,   810.000,     0.000,  11,0.6667,   1,0.3333
   206,'1 ',   158.000,     0.000,   600.000,     0.000,0.98000,   205,  1000.000, 1.00000E-2, 2.50000E-1, 0.00000E+0, 0.00000E+0,1.00000,1,  100.0,   900.000,     0.000,   2,0.4000,  22,0.6000
   211,'1 ',   411.000,  -100.000,   400.000,  -100.000,1.04000,   201,   725.000, 1.00000E-2, 2.60000E-1, 0.00000E+0, 0.00000E+0,1.00000,1,  100.0,   616.250,     0.000,   2,0.4000,  22,0.6000
  3011,'1 ',   135.405,  -134.203,   600.000,  -100.000,1.04000,     0,  1000.000, 1.00000E-2, 3.50000E-1, 0.00000E+0, 0.00000E+0,1.00000,1,  100.0,   900.000,     0.000,  55,0.3846,   5,0.3077,  22,0.2308,  11,0.0769
  3018,'1 ',    53.500,    35.568,    80.000,     0.000,1.02000,  3008,   130.000, 1.00000E-2, 3.50000E-1, 0.00000E+0, 0.00000E+0,1.00000,1,  100.0,   117.000,     0.000,  55,0.5556,   5,0.4444
0 / END OF GENERATOR DATA, BEGIN BRANCH DATA
@!   I,     J,'CKT',     R,          X,         B,                    'N A M E'                 ,   RATE1,   RATE2,   RATE3,   RATE4,   RATE5,   RATE6,   RATE7,   RATE8,   RATE9,  RATE10,  RATE11,  RATE12,    GI,       BI,       GJ,       BJ,STAT,MET,  LEN,  O1,  F1,    O2,  F2,    O3,  F3,    O4,  F4
   151,   152,'1 ', 2.60000E-3, 4.60000E-2,   3.50000,'                                        ', 1200.00, 1300.00,    1.00,    0.00,    0.00,    0.00,    0.00,    0.00,    0.00,    0.00,    0.00,    0.00,  0.00000,  0.00000,  0.00000,  0.00000,1,1,   0.00,   1,1.0000
   151,   152,'2 ', 2.60000E-3, 4.60000E-2,   3.50000,'                                        ', 1200.00, 1300.00,    1.00,    0.00,    0.00,    0.00,    0.00,    0.00,    0.00,    0.00,    0.00,    0.00,  0.00000,  0.00000,  0.00000,  0.00000,1,1,   0.00,   1,1.0000
   151,   201,'1 ', 1.00000E-3, 1.50000E-2,   1.20000,'                                        ', 1200.00, 1300.00,    1.00,    0.00,    0.00,    0.00,    0.00,    0.00,    0.00,    0.00,    0.00,    0.00,  0.00000,  0.00000,  0.00000,  0.00000,1,1,   0.00,   1,1.0000
   152,   202,'1 ', 8.00000E-4, 1.00000E-2,   0.95000,'                                        ', 1200.00, 1300.00,    1.00,    0.00,    0.00,    0.00,    0.00,    0.00,    0.00,    0.00,    0.00,    0.00,  0.00000,  0.00000,  0.00000,  0.00000,1,2,   0.00,   1,1.0000
   152,  3004,'1 ', 3.00000E-3, 3.00000E-2,   2.50000,'                                        ',    0.00,    0.00,    1.00,    0.00,    0.00,    0.00,    0.00,    0.00,    0.00,    0.00,    0.00,    0.00,  0.00000,  0.00000,  0.00000,  0.00000,1,1,   0.00,   1,1.0000
   153,   154,'1 ', 5.00000E-3, 4.50000E-2,   0.10000,'                                        ',  300.00,  350.00,    1.00,    0.00,    0.00,    0.00,    0.00,    0.00,    0.00,    0.00,    0.00,    0.00,  0.00000,  0.00000,  0.00000,  0.00000,1,1,   0.00,   1,0.7500, 100,0.2500
   153,   154,'2 ', 6.00000E-3, 5.40000E-2,   0.15000,'                                        ',  300.00,  350.00,    1.00,    0.00,    0.00,    0.00,    0.00,    0.00,    0.00,    0.00,    0.00,    0.00,  0.00000,  0.00000,  0.00000,  0.00000,1,1,   0.00,   1,1.0000
   153,  3006,'1 ', 1.00000E-3, 1.20000E-2,   0.03000,'                                        ',    0.00,    0.00,    1.00,    0.00,    0.00,    0.00,    0.00,    0.00,    0.00,    0.00,    0.00,    0.00,  0.00000,  0.00000,  0.00000,  0.00000,1,1,   0.00,   1,1.0000
   154,   203,'1 ', 4.00000E-3, 4.00000E-2,   0.10000,'                                        ',  200.00,  250.00,    1.00,    0.00,    0.00,    0.00,    0.00,    0.00,    0.00,    0.00,    0.00,    0.00,  0.00000,  0.00000,  0.00000,  0.00000,1,1,   0.00,   1,1.0000
   154,   205,'1 ', 3.30000E-4, 3.33000E-3,   0.09000,'                                        ',  600.00,  660.00,    1.00,    0.00,    0.00,    0.00,    0.00,    0.00,    0.00,    0.00,    0.00,    0.00,  0.00000,  0.00000,  0.00000,  0.00000,1,1,   0.00,   1,1.0000
   154,  3008,'1 ', 2.70000E-3, 2.20000E-2,   0.30000,'                                        ',  400.00,  440.00,    1.00,    0.00,    0.00,    0.00,    0.00,    0.00,    0.00,    0.00,    0.00,    0.00,  0.00000,  0.00000,  0.00000,  0.00000,1,1,   0.00,   1,1.0000
   201,   202,'1 ', 2.00000E-3, 2.50000E-2,   2.00000,'                                        ', 1200.00, 1300.00,    1.00,    0.00,    0.00,    0.00,    0.00,    0.00,    0.00,    0.00,    0.00,    0.00,  0.00000,  0.00000,  0.00000,  0.00000,1,1,   0.00,  22,1.0000
   201,   204,'1 ', 3.00000E-3, 3.00000E-2,   2.50000,'                                        ', 1200.00, 1300.00,    1.00,    0.00,    0.00,    0.00,    0.00,    0.00,    0.00,    0.00,    0.00,    0.00,  0.00000,  0.00000,  0.00000,  0.00000,1,1,   0.00,  22,1.0000
   203,   205,'1 ', 5.00000E-3, 4.50000E-2,   0.08000,'                                        ',  200.00,  250.00,    1.00,    0.00,    0.00,    0.00,    0.00,    0.00,    0.00,    0.00,    0.00,    0.00,  0.00000,  0.00000,  0.00000,  0.00000,1,2,   0.00,   2,1.0000
   203,   205,'2 ', 5.00000E-3, 4.50000E-2,   0.08000,'                                        ',  200.00,  250.00,    1.00,    0.00,    0.00,    0.00,    0.00,    0.00,    0.00,    0.00,    0.00,    0.00,  0.00000,  0.00000,  0.00000,  0.00000,1,2,   0.00,   2,1.0000
  3001,  3003,'1 ', 0.00000E+0, 8.00000E-3,   0.00000,'                                        ',    0.00,    0.00,    1.00,    0.00,    0.00,    0.00,    0.00,    0.00,    0.00,    0.00,    0.00,    0.00,  0.00000,  0.00000,  0.00000,  0.00000,1,1,   0.00,  55,1.0000
  3002,  3004,'1 ', 6.00000E-3, 5.40000E-2,   0.09000,'                                        ',    0.00,    0.00,    1.00,    0.00,    0.00,    0.00,    0.00,    0.00,    0.00,    0.00,    0.00,    0.00,  0.00000,  0.00000,  0.00000,  0.00000,1,1,   0.00,   5,1.0000
  3003,  3005,'1 ', 6.00000E-3, 5.40000E-2,   0.09000,'                                        ',    0.00,    0.00,    1.00,    0.00,    0.00,    0.00,    0.00,    0.00,    0.00,    0.00,    0.00,    0.00,  0.00000,  0.00000,  0.00000,  0.00000,1,1,   0.00,   5,1.0000
  3003,  3005,'2 ', 6.00000E-3, 5.40000E-2,   0.09000,'                                        ',    0.00,    0.00,    1.00,    0.00,    0.00,    0.00,    0.00,    0.00,    0.00,    0.00,    0.00,    0.00,  0.00000,  0.00000,  0.00000,  0.00000,1,1,   0.00,   5,1.0000
  3005,  3006,'1 ', 3.50000E-3, 3.00000E-2,   0.07000,'                                        ',    0.00,    0.00,    1.00,    0.00,    0.00,    0.00,    0.00,    0.00,    0.00,    0.00,    0.00,    0.00,  0.00000,  0.00000,  0.00000,  0.00000,1,1,   0.00,   5,1.0000
  3005,  3007,'1 ', 3.00000E-3, 2.50000E-2,   0.06000,'                                        ',    0.00,    0.00,    1.00,    0.00,    0.00,    0.00,    0.00,    0.00,    0.00,    0.00,    0.00,    0.00,  0.00000,  0.00000,  0.00000,  0.00000,1,1,   0.00,   5,1.0000
  3005,  3008,'1 ', 6.00000E-3, 5.00000E-2,   0.12000,'                                        ',    0.00,    0.00,    1.00,    0.00,    0.00,    0.00,    0.00,    0.00,    0.00,    0.00,    0.00,    0.00,  0.00000,  0.00000,  0.00000,  0.00000,1,1,   0.00,   5,1.0000
  3007,  3008,'1 ', 3.00000E-3, 2.50000E-2,   0.06000,'                                        ',    0.00,    0.00,    1.00,    0.00,    0.00,    0.00,    0.00,    0.00,    0.00,    0.00,    0.00,    0.00,  0.00000,  0.00000,  0.00000,  0.00000,1,1,   0.00,   5,1.0000
0 / END OF BRANCH DATA, BEGIN SYSTEM SWITCHING DEVICE DATA
@!   I,     J,'CKT',          X,   RATE1,   RATE2,   RATE3,   RATE4,   RATE5,   RATE6,   RATE7,   RATE8,   RATE9,  RATE10,  RATE11,  RATE12, STAT,NSTAT,  MET,STYPE,'NAME'
0 / END OF SYSTEM SWITCHING DEVICE DATA, BEGIN TRANSFORMER DATA
@!   I,     J,     K,'CKT',CW,CZ,CM,    MAG1,       MAG2,NMETR,               'N A M E',               STAT,O1,  F1,    O2,  F2,    O3,  F3,    O4,  F4,     'VECGRP', ZCOD
@!   R1-2,       X1-2,   SBASE1-2,     R2-3,       X2-3,   SBASE2-3,     R3-1,       X3-1,   SBASE3-1, VMSTAR,   ANSTAR
@!WINDV1,  NOMV1,    ANG1,  RATE1-1,  RATE1-2,  RATE1-3,  RATE1-4,  RATE1-5,  RATE1-6,  RATE1-7,  RATE1-8,  RATE1-9, RATE1-10, RATE1-11, RATE1-12,COD1,CONT1,   RMA1,    RMI1,    VMA1,    VMI1, NTP1,TAB1,  CR1,     CX1,   CNXA1
@!WINDV2,  NOMV2,    ANG2,  RATE2-1,  RATE2-2,  RATE2-3,  RATE2-4,  RATE2-5,  RATE2-6,  RATE2-7,  RATE2-8,  RATE2-9, RATE2-10, RATE2-11, RATE2-12,COD2,CONT2,   RMA2,    RMI2,    VMA2,    VMI2, NTP2,TAB2,  CR2,     CX2,   CNXA2
@!WINDV3,  NOMV3,    ANG3,  RATE3-1,  RATE3-2,  RATE3-3,  RATE3-4,  RATE3-5,  RATE3-6,  RATE3-7,  RATE3-8,  RATE3-9, RATE3-10, RATE3-11, RATE3-12,COD3,CONT3,   RMA3,    RMI3,    VMA3,    VMI3, NTP3,TAB3,  CR3,     CX3,   CNXA3
   151,   101,     0,'1 ', 1, 1, 1, 0.00000E+0, 0.00000E+0,2,'                                        ',1,   1,1.0000,   0,1.0000,   0,1.0000,   0,1.0000,'            '
 3.00000E-4, 1.36000E-2,   100.00
1.00000,   0.000,   0.000,  1250.00,  1350.00,  1750.00,     0.00,     0.00,     0.00,     0.00,     0.00,     0.00,     0.00,     0.00,     0.00, 0,      0, 1.10000, 0.90000, 1.10000, 0.90000,   5, 0, 0.00000, 0.00000,  0.000
1.00000,   0.000
   151,   102,     0,'1 ', 1, 1, 1, 0.00000E+0, 0.00000E+0,2,'                                        ',1,   1,1.0000,   0,1.0000,   0,1.0000,   0,1.0000,'            '
 3.00000E-4, 1.36000E-2,   100.00
1.00000,   0.000,   0.000,  1250.00,  1350.00,  1750.00,     0.00,     0.00,     0.00,     0.00,     0.00,     0.00,     0.00,     0.00,     0.00, 0,      0, 1.10000, 0.90000, 1.10000, 0.90000,   5, 0, 0.00000, 0.00000,  0.000
1.00000,   0.000
   152,   153,     0,'1 ', 1, 1, 1, 0.00000E+0, 0.00000E+0,2,'                                        ',1,   1,1.0000,   0,1.0000,   0,1.0000,   0,1.0000,'            '
 0.00000E+0, 5.00000E-3,   100.00
1.00937,   0.000,   0.000,  2500.00,  3000.00,  3500.00,     0.00,     0.00,     0.00,     0.00,     0.00,     0.00,     0.00,     0.00,     0.00, 1,    154, 1.05000, 0.95000, 1.00000, 0.98000,  33, 0, 0.00000, 0.00000,  0.000
1.00000,   0.000
   201,   211,     0,'1 ', 1, 1, 1, 0.00000E+0, 0.00000E+0,2,'                                        ',1,  22,1.0000,   0,1.0000,   0,1.0000,   0,1.0000,'            '
 7.00000E-4, 2.12500E-2,   100.00
1.00000,   0.000,   0.000,   800.00,  1000.00,  1120.00,     0.00,     0.00,     0.00,     0.00,     0.00,     0.00,     0.00,     0.00,     0.00, 0,    201, 1.10000, 0.90000, 1.05000, 0.95000,   5, 0, 0.00000, 0.00000,  0.000
1.00000,   0.000
   202,   203,     0,'1 ', 1, 1, 1, 0.00000E+0, 0.00000E+0,2,'                                        ',1,   2,1.0000,   0,1.0000,   0,1.0000,   0,1.0000,'            '
 4.00000E-4, 1.62500E-2,   100.00
1.00000,   0.000,   0.000,   800.00,  1040.00,  1200.00,     0.00,     0.00,     0.00,     0.00,     0.00,     0.00,     0.00,     0.00,     0.00, 3,      0,30.00000,-30.0000,555.0000,545.0000,  33, 0, 0.00000, 0.00000,  0.000
1.00000,   0.000
   204,   205,     0,'1 ', 1, 1, 1, 0.00000E+0, 0.00000E+0,2,'                                        ',1,   2,1.0000,   0,1.0000,   0,1.0000,   0,1.0000,'            '
 3.00000E-4, 1.50000E-2,   100.00
1.00000,   0.000,   0.000,   800.00,  1040.00,  1200.00,     0.00,     0.00,     0.00,     0.00,     0.00,     0.00,     0.00,     0.00,     0.00, 1,    205, 1.05000, 0.95000, 1.00000, 0.98000,  33, 0, 0.00000, 0.00000,  0.000
1.00000,   0.000
   205,   206,     0,'1 ', 1, 1, 1, 0.00000E+0, 0.00000E+0,2,'                                        ',1,   2,1.0000,   0,1.0000,   0,1.0000,   0,1.0000,'            '
 2.60000E-4, 1.33300E-2,   100.00
1.00000,   0.000,   0.000,   900.00,  1080.00,  1350.00,     0.00,     0.00,     0.00,     0.00,     0.00,     0.00,     0.00,     0.00,     0.00, 0,      0, 1.10000, 0.90000, 1.10000, 0.90000,   5, 0, 0.00000, 0.00000,  0.000
1.00000,   0.000
  3001,  3002,     0,'1 ', 1, 1, 1, 0.00000E+0, 0.00000E+0,1,'                                        ',1,  55,1.0000,   0,1.0000,   0,1.0000,   0,1.0000,'            '
 3.00000E-4, 1.50000E-2,   100.00
1.00000,   0.000,   0.000,   800.00,  1040.00,  1200.00,     0.00,     0.00,     0.00,     0.00,     0.00,     0.00,     0.00,     0.00,     0.00, 0,      0, 1.10000, 0.90000, 1.05000, 0.95000,  33, 0, 0.00000, 0.00000,  0.000
1.00000,   0.000
  3001,  3011,     0,'1 ', 1, 1, 1, 0.00000E+0, 0.00000E+0,2,'                                        ',1,  55,1.0000,   0,1.0000,   0,1.0000,   0,1.0000,'            '
 2.00000E-4, 1.00000E-2,   100.00
1.00000,   0.000,   0.000,  1300.00,  1560.00,  1820.00,     0.00,     0.00,     0.00,     0.00,     0.00,     0.00,     0.00,     0.00,     0.00, 0,      0, 1.10000, 0.90000, 1.05000, 0.95000,   5, 0, 0.00000, 0.00000,  0.000
1.00000,   0.000
  3004,  3005,     0,'1 ', 1, 1, 1, 0.00000E+0, 0.00000E+0,1,'                                        ',1,   5,1.0000,   0,1.0000,   0,1.0000,   0,1.0000,'            '
 4.00000E-4, 1.62500E-2,   100.00
1.00000,   0.000,   0.000,   800.00,  1040.00,  1200.00,     0.00,     0.00,     0.00,     0.00,     0.00,     0.00,     0.00,     0.00,     0.00, 0,      0, 1.10000, 0.90000, 1.05000, 0.95000,  33, 0, 0.00000, 0.00000,  0.000
1.00000,   0.000
  3008,  3018,     0,'1 ', 1, 1, 1, 0.00000E+0, 0.00000E+0,2,'                                        ',1,  55,1.0000,   0,1.0000,   0,1.0000,   0,1.0000,'            '
 2.10000E-4, 8.50000E-2,   100.00
1.00000,   0.000,   0.000,   150.00,   200.00,   250.00,     0.00,     0.00,     0.00,     0.00,     0.00,     0.00,     0.00,     0.00,     0.00, 0,      0, 1.10000, 0.90000, 1.05000, 0.95000,   5, 0, 0.00000, 0.00000,  0.000
1.00000,   0.000
0 / END OF TRANSFORMER DATA, BEGIN AREA DATA
@! I,   ISW,     PDES,      PTOL,    'ARNAME'
   1,   101,   250.000,    10.000,'FLAPCO      '
   2,   206,  -100.000,    10.000,'LIGHTCO     '
   5,  3011,  -150.000,    10.000,'WORLD       '
0 / END OF AREA DATA, BEGIN TWO-TERMINAL DC DATA
@!  'NAME',   MDC,     RDC,      SETVL,     VSCHD,     VCMOD,     RCOMP,    DELTI,METER    DCVMIN,CCCITMX, CCCACC
@! IPR,NBR,ANMXR,ANMNR,   RCR,    XCR,  EBASR,  TRR,    TAPR,   TMXR,   TMNR,   STPR,    ICR,   IFR,   ITR,'IDR', XCAPR
@! IPI,NBI,ANMXI,ANMNI,   RCI,    XCI,  EBASI,  TRI,    TAPI,   TMXI,   TMNI,   STPI,    ICI,   IFI,   ITI,'IDI', XCAPI
0 / END OF TWO-TERMINAL DC DATA, BEGIN VSC DC LINE DATA
@!  'NAME',   MDC,     RDC,   O1,  F1,    O2,  F2,    O3,  F3,    O4,  F4
@!IBUS,TYPE,MODE,     DCSET,   ACSET,     ALOSS,     BLOSS,   MINLOSS,     SMAX,      IMAX,   PWF,        MAXQ,      MINQ, REMOT,  RMPCT
0 / END OF VSC DC LINE DATA, BEGIN IMPEDANCE CORRECTION DATA
@!I,   T1,    Re(F1),  Im(F1),    T2,    Re(F2),  Im(F2),    T3,    Re(F3),  Im(F3),    T4,    Re(F4),  Im(F4),    T5,    Re(F5),  Im(F5),    T6,    Re(F6),  Im(F6)
@!     T7,    Re(F7),  Im(F7),    T8,    Re(F8),  Im(F8),    T9,    Re(F9),  Im(F9),    T10,  Re(F10), Im(F10),    T11,  Re(F11), Im(F11),    T12,  Re(F12), Im(F12)
@!      ...
0 / END OF IMPEDANCE CORRECTION DATA, BEGIN MULTI-TERMINAL DC DATA
@!  'NAME',    NCONV,NDCBS,NDCLN,  MDC, VCONV,     VCMOD, VCONVN
@!  IB, N,ANGMX,ANGMN,    RC,      XC,    EBAS,   TR,    TAP,    TPMX,   TPMN,   TSTP,     SETVL,   DCPF,    MARG,CNVCOD
@!IDC, IB,AREA,ZONE,   'DCNAME',  IDC2,   RGRND,OWNER
@!IDC,JDC,'DCCKT',MET,   RDC,        LDC
0 / END OF MULTI-TERMINAL DC DATA, BEGIN MULTI-SECTION LINE DATA
@!   I,     J,'ID',MET,DUM1,  DUM2,  DUM3,  DUM4,  DUM5,  DUM6,  DUM7,  DUM8,  DUM9
   201,   205,'&1',1,   204
  3005,  3008,'&1',2,  3007
0 / END OF MULTI-SECTION LINE DATA, BEGIN ZONE DATA
@! I,   'ZONAME'
   1,'FIRST       '
   2,'SECOND      '
   5,'FIFTH       '
  77,'PLANT       '
0 / END OF ZONE DATA, BEGIN INTER-AREA TRANSFER DATA
@!ARFROM,ARTO,'TRID', PTRAN
     1,     2,'A',    70.00
     1,     2,'B',    30.00
     1,     5,'A',   100.00
     1,     5,'B',    50.00
0 / END OF INTER-AREA TRANSFER DATA, BEGIN OWNER DATA
@! I,   'OWNAME'
   1,'TRAN 1      '
   2,'TRAN 2      '
   5,'TRAN 5      '
  11,'GEN 1       '
  22,'GEN 2       '
  55,'GEN 5       '
 100,'NO BUSES    '
0 / END OF OWNER DATA, BEGIN FACTS DEVICE DATA
@!  'NAME',         I,     J,MODE,   PDES,      QDES,  VSET,      SHMX,      TRMX,   VTMN,   VTMX,   VSMX,      IMX,     LINX,   RMPCT,OWNER,    SET1,      SET2,VSREF, REMOT,   'MNAME'
0 / END OF FACTS DEVICE DATA, BEGIN SWITCHED SHUNT DATA
@!  I,MODSW,ADJM,ST, VSWHI,  VSWLO, SWREM,  RMPCT,   'RMIDNT',      BINIT,N1,     B1, N2,     B2, N3,     B3, N4,     B4, N5,     B5, N6,     B6, N7,     B7, N8,     B8
0 / END OF SWITCHED SHUNT DATA, BEGIN GNE DATA
@!  'NAME',        'MODEL',     NTERM,BUS1...BUSNTERM,NREAL,NINTG,NCHAR
@!ST,OWNER,NMETR
@! REAL1...REAL(MIN(10,NREAL))
@! INTG1...INTG(MIN(10,NINTG))
@! CHAR1...CHAR(MIN(10,NCHAR))
0 / END OF GNE DATA, BEGIN INDUCTION MACHINE DATA
@!   I,'ID',ST,SC,DC,AREA,ZONE,OWNER,TC,BC,  MBASE, RATEKV,PC,  PSET,      H,       A,       B,       D,       E,     RA,        XA,        XM,        R1,        X1,        R2,        X2,        X3,       E1,    SE1,   E2,    SE2,   IA1,   IA2, XAMULT
0 / END OF INDUCTION MACHINE DATA, BEGIN SUBSTATION DATA
0 / END OF SUBSTATION DATA
Q
